#======================================================================

# CRYSTAL DATA

#----------------------------------------------------------------------

data_VESTA_phase_1


_chemical_name_common                  'sm_isp_SD1110128-standardized_unitcell'
_cell_length_a                         9.14600
_cell_length_b                         3.78510
_cell_length_c                         13.42400
_cell_angle_alpha                      90
_cell_angle_beta                       90
_cell_angle_gamma                      90
_space_group_name_H-M_alt              'P n m a'
_space_group_IT_number                 62

loop_
_space_group_symop_operation_xyz
   'x, y, z'
   '-x, -y, -z'
   '-x+1/2, -y, z+1/2'
   'x+1/2, y, -z+1/2'
   '-x, y+1/2, -z'
   'x, -y+1/2, z'
   'x+1/2, -y+1/2, -z+1/2'
   '-x+1/2, y+1/2, z+1/2'

loop_
   _atom_site_label
   _atom_site_occupancy
   _atom_site_fract_x
   _atom_site_fract_y
   _atom_site_fract_z
   _atom_site_adp_type
   _atom_site_B_iso_or_equiv
   _atom_site_type_symbol
   Sb         1.0     0.029500      0.250000      0.657860     Biso  1.000000 Sb
   Cr         1.0     0.154900      0.250000      0.044600     Biso  1.000000 Cr
   Se3        1.0     0.171800      0.250000      0.484500     Biso  1.000000 Se
   Se2        1.0     0.284800      0.250000      0.212800     Biso  1.000000 Se
   Se1        1.0     0.501900      0.250000      0.608700     Biso  1.000000 Se
